Iowa_Distribution_Test_Systems/OpenDSS Model/OpenDSS Model/240_bus_test_system_Curr_Seq.Txt

SYMMETRICAL COMPONENT CURRENTS BY CIRCUIT ELEMENT (first 3 phases)

Element                       Term      I1         I2         %I2/I1    I0         %I0/I1   %Normal %Emergency

"VSOURCE.SOURCE" ............   1      10.102      0.50377     4.99  3.0527E-013     0.00      0.00     0.00
   -                            2      10.102      0.50377     4.99  3.0527E-013     0.00      0.00     0.00
"TRANSFORMER.SUB_XFMR" ......   1      10.102      0.50377     4.99  8.3819E-014     0.00     11.40     8.36
   -                            2       50.51       2.5188     4.99       2.625     5.20      0.00     0.00
"TRANSFORMER.SUB_REGULATOR_A"   1      55.415            0     0.00           0     0.00     11.47     8.41
   -                            2      54.063            0     0.00           0     0.00      0.00     0.00
"TRANSFORMER.SUB_REGULATOR_B"   1      46.727            0     0.00           0     0.00      9.67     7.09
   -                            2      45.587            0     0.00           0     0.00      0.00     0.00
"TRANSFORMER.SUB_REGULATOR_C"   1       49.39            0     0.00           0     0.00     10.22     7.50
   -                            2      48.185            0     0.00           0     0.00      0.00     0.00
"TRANSFORMER.T_1003" ........   1     0.64933   0.00026493     0.04   0.0003559     0.05     12.55     9.20
   -                            2       43.08     0.017577     0.04    0.023613     0.05      0.00     0.00
"TRANSFORMER.T_1004" ........   1     0.31494   0.00012765     0.04  0.00017296     0.05      9.13     6.69
   -                            2      20.895    0.0084692     0.04    0.011475     0.05      0.00     0.00
"TRANSFORMER.T_1005" ........   1      0.2172   8.787E-005     0.04  0.00011958     0.06      6.30     4.62
   -                            2       14.41    0.0058299     0.04   0.0079337     0.06      0.00     0.00
"TRANSFORMER.T_1006" ........   1     0.39465            0     0.00           0     0.00      7.62     5.59
   -                            2      26.183            0     0.00           0     0.00      0.00     0.00
"TRANSFORMER.T_1007" ........   1     0.33116            0     0.00           0     0.00     19.19    14.07
   -                            2      21.972            0     0.00           0     0.00      0.00     0.00
"TRANSFORMER.T_1008" ........   1     0.64177    0.0002584     0.04  0.00035747     0.06     31.00    22.73
   -                            2      42.579     0.017144     0.04    0.023717     0.06      0.00     0.00
"TRANSFORMER.T_1009" ........   1     0.75837   0.00030398     0.04  0.00042042     0.06     21.98    16.12
   -                            2      50.315     0.020168     0.04    0.027894     0.06      0.00     0.00
"TRANSFORMER.T_1010" ........   1     0.31627   0.00012662     0.04  0.00017507     0.06     15.28    11.20
   -                            2      20.983    0.0084004     0.04    0.011615     0.06      0.00     0.00
"TRANSFORMER.T_1011" ........   1     0.40587            0     0.00           0     0.00     11.76     8.62
   -                            2      13.474            0     0.00           0     0.00      0.00     0.00
   -                            3      13.474            0     0.00           0     0.00      0.00     0.00
"TRANSFORMER.T_1012" ........   1     0.40407            0     0.00           0     0.00      7.80     5.72
   -                            2      13.414            0     0.00           0     0.00      0.00     0.00
   -                            3      13.415            0     0.00           0     0.00      0.00     0.00
"TRANSFORMER.T_1013" ........   1    0.065733   2.6447E-005     0.04  3.6142E-005     0.05      3.18     2.33
   -                            2      4.3611    0.0017547     0.04   0.0023979     0.05      0.00     0.00
"TRANSFORMER.T_1014" ........   1    0.061269            0     0.00           0     0.00      1.78     1.30
   -                            2       2.034            0     0.00           0     0.00      0.00     0.00
   -                            3       2.034            0     0.00           0     0.00      0.00     0.00
"TRANSFORMER.T_1015" ........   1      0.0996            0     0.00           0     0.00      2.89     2.12
   -                            2      3.3066            0     0.00           0     0.00      0.00     0.00
   -                            3      3.3066            0     0.00           0     0.00      0.00     0.00
"TRANSFORMER.T_1016" ........   1     0.42192            0     0.00           0     0.00      6.11     4.48
   -                            2      14.007            0     0.00           0     0.00      0.00     0.00
   -                            3      14.007            0     0.00           0     0.00      0.00     0.00
"TRANSFORMER.T_1017" ........   1     0.27334            0     0.00           0     0.00      5.28     3.87
   -                            2      9.0745            0     0.00           0     0.00      0.00     0.00
   -                            3      9.0746            0     0.00           0     0.00      0.00     0.00
"TRANSFORMER.T_2002" ........   1      1.2229   0.00043078     0.04  0.00065266     0.05      8.86     6.50
   -                            2      81.131     0.028581     0.04    0.043301     0.05      0.00     0.00
"TRANSFORMER.T_2003" ........   1     0.60725   0.00018326     0.03  0.00032095     0.05     17.60    12.91
   -                            2      40.289     0.012159     0.03    0.021294     0.05      0.00     0.00
"TRANSFORMER.T_2005" ........   1     0.39717   0.00010357     0.03  0.00020824     0.05     19.19    14.07
   -                            2      26.351    0.0068712     0.03    0.013816     0.05      0.00     0.00
"TRANSFORMER.T_2008" ........   1      0.2802            0     0.00           0     0.00      8.12     5.95
   -                            2      9.3022            0     0.00           0     0.00      0.00     0.00
   -                            3      9.3023            0     0.00           0     0.00      0.00     0.00
"TRANSFORMER.T_2009" ........   1     0.16515            0     0.00           0     0.00      4.78     3.51
   -                            2      5.4827            0     0.00           0     0.00      0.00     0.00
   -                            3      5.4828            0     0.00           0     0.00      0.00     0.00
"TRANSFORMER.T_2010" ........   1     0.10119   2.5146E-005     0.02  5.2676E-005     0.05      4.89     3.58
   -                            2      6.7138    0.0016684     0.02   0.0034948     0.05      0.00     0.00
"TRANSFORMER.T_2011" ........   1     0.23269   5.5315E-005     0.02  0.00012091     0.05     11.24     8.24
   -                            2      15.438      0.00367     0.02   0.0080221     0.05      0.00     0.00
"TRANSFORMER.T_2014" ........   1     0.36156            0     0.00           0     0.00      6.98     5.12
   -                            2      12.003            0     0.00           0     0.00      0.00     0.00
   -                            3      12.003            0     0.00           0     0.00      0.00     0.00
"TRANSFORMER.T_2015" ........   1     0.19963            0     0.00           0     0.00      5.78     4.24
   -                            2      6.6272            0     0.00           0     0.00      0.00     0.00
   -                            3      6.6273            0     0.00           0     0.00      0.00     0.00
"TRANSFORMER.T_2016" ........   1     0.20624            0     0.00           0     0.00      5.98     4.38
   -                            2      6.8469            0     0.00           0     0.00      0.00     0.00
   -                            3      6.8469            0     0.00           0     0.00      0.00     0.00
"TRANSFORMER.T_2017" ........   1     0.70416            0     0.00           0     0.00     20.40    14.96
   -                            2      23.377            0     0.00           0     0.00      0.00     0.00
   -                            3      23.377            0     0.00           0     0.00      0.00     0.00
"TRANSFORMER.T_2018" ........   1     0.36096            0     0.00           0     0.00     10.46     7.67
   -                            2      11.983            0     0.00           0     0.00      0.00     0.00
   -                            3      11.983            0     0.00           0     0.00      0.00     0.00
"TRANSFORMER.T_2020" ........   1     0.40083            0     0.00           0     0.00     11.61     8.52
   -                            2      13.307            0     0.00           0     0.00      0.00     0.00
   -                            3      13.307            0     0.00           0     0.00      0.00     0.00
"TRANSFORMER.T_2022" ........   1     0.36977            0     0.00           0     0.00     10.71     7.86
   -                            2      12.276            0     0.00           0     0.00      0.00     0.00
   -                            3      12.276            0     0.00           0     0.00      0.00     0.00
"TRANSFORMER.T_2023" ........   1    0.091502            0     0.00           0     0.00      4.42     3.24
   -                            2      3.0377            0     0.00           0     0.00      0.00     0.00
   -                            3      3.0377            0     0.00           0     0.00      0.00     0.00
"TRANSFORMER.T_2024" ........   1     0.31736            0     0.00           0     0.00      9.20     6.74
   -                            2      10.536            0     0.00           0     0.00      0.00     0.00
   -                            3      10.536            0     0.00           0     0.00      0.00     0.00
"TRANSFORMER.T_2025" ........   1      0.3582            0     0.00           0     0.00     10.38     7.61
   -                            2      11.892            0     0.00           0     0.00      0.00     0.00
   -                            3      11.892            0     0.00           0     0.00      0.00     0.00
"TRANSFORMER.T_2028" ........   1  6.3946E-006            0     0.00           0     0.00      0.00     0.00
   -                            2  4.0888E-008            0     0.00           0     0.00      0.00     0.00
   -                            3  0.00021229            0     0.00           0     0.00      0.00     0.00
"TRANSFORMER.T_2029" ........   1     0.39605   8.6864E-005     0.02  0.00020527     0.05     11.48     8.42
   -                            2      26.276    0.0057632     0.02    0.013619     0.05      0.00     0.00
"TRANSFORMER.T_2030" ........   1     0.24362   5.3516E-005     0.02   0.0001262     0.05      7.06     5.18
   -                            2      16.163    0.0035506     0.02   0.0083727     0.05      0.00     0.00
"TRANSFORMER.T_2031" ........   1     0.45003            0     0.00           0     0.00     13.04     9.56
   -                            2       14.94            0     0.00           0     0.00      0.00     0.00
   -                            3       14.94            0     0.00           0     0.00      0.00     0.00
"TRANSFORMER.T_2032" ........   1     0.10014   2.1539E-005     0.02   5.17E-005     0.05      4.84     3.55
   -                            2      6.6439     0.001429     0.02   0.0034301     0.05      0.00     0.00
"TRANSFORMER.T_2034" ........   1     0.16555   3.5232E-005     0.02  8.5554E-005     0.05      8.00     5.86
   -                            2      10.984    0.0023375     0.02   0.0056762     0.05      0.00     0.00
"TRANSFORMER.T_2035" ........   1     0.17189   3.638E-005     0.02  8.875E-005     0.05      4.98     3.65
   -                            2      11.404    0.0024138     0.02   0.0058882     0.05      0.00     0.00
"TRANSFORMER.T_2037" ........   1     0.17071   3.5858E-005     0.02  8.8237E-005     0.05      8.25     6.05
   -                            2      11.326    0.0023791     0.02   0.0058542     0.05      0.00     0.00
"TRANSFORMER.T_2040" ........   1      3.5252   0.00073895     0.02   0.0018393     0.05     25.54    18.73
   -                            2      233.88     0.049027     0.02     0.12203     0.05      0.00     0.00
"TRANSFORMER.T_2041" ........   1    0.080475   1.6427E-005     0.02  4.155E-005     0.05      3.89     2.85
   -                            2      5.3392    0.0010899     0.02   0.0027567     0.05      0.00     0.00
"TRANSFORMER.T_2042" ........   1     0.19294   3.9222E-005     0.02  9.9703E-005     0.05      5.59     4.10
   -                            2      12.801    0.0026023     0.02    0.006615     0.05      0.00     0.00
"TRANSFORMER.T_2043" ........   1     0.27609   5.5208E-005     0.02  0.00014303     0.05      8.00     5.87
   -                            2      18.317    0.0036629     0.02   0.0094894     0.05      0.00     0.00
"TRANSFORMER.T_2045" ........   1     0.27693            0     0.00           0     0.00     13.37     9.81
   -                            2      9.1936            0     0.00           0     0.00      0.00     0.00
   -                            3      9.1937            0     0.00           0     0.00      0.00     0.00
"TRANSFORMER.T_2046" ........   1     0.88849            0     0.00           0     0.00     12.87     9.44
   -                            2      29.497            0     0.00           0     0.00      0.00     0.00
   -                            3      29.497            0     0.00           0     0.00      0.00     0.00
"TRANSFORMER.T_2047" ........   1     0.70102            0     0.00           0     0.00     10.16     7.45
   -                            2      23.273            0     0.00           0     0.00      0.00     0.00
   -                            3      23.273            0     0.00           0     0.00      0.00     0.00
"TRANSFORMER.T_2048" ........   1     0.51015            0     0.00           0     0.00      7.39     5.42
   -                            2      16.936            0     0.00           0     0.00      0.00     0.00
   -                            3      16.936            0     0.00           0     0.00      0.00     0.00
"TRANSFORMER.T_2049" ........   1      0.4641            0     0.00           0     0.00      8.96     6.57
   -                            2      15.407            0     0.00           0     0.00      0.00     0.00
   -                            3      15.408            0     0.00           0     0.00      0.00     0.00
"TRANSFORMER.T_2050" ........   1     0.46657            0     0.00           0     0.00      9.01     6.61
   -                            2      15.489            0     0.00           0     0.00      0.00     0.00
   -                            3      15.489            0     0.00           0     0.00      0.00     0.00
"TRANSFORMER.T_2051" ........   1     0.77537            0     0.00           0     0.00     14.98    10.98
   -                            2      25.741            0     0.00           0     0.00      0.00     0.00
   -                            3      25.741            0     0.00           0     0.00      0.00     0.00
"TRANSFORMER.T_2052" ........   1      1.7992   0.00035537     0.02  0.00093342     0.05     17.38    12.75
   -                            2      119.37     0.023578     0.02    0.061929     0.05      0.00     0.00
"TRANSFORMER.T_2053" ........   1     0.19324   3.9356E-005     0.02  0.00010162     0.05      1.87     1.37
   -                            2       12.82    0.0026114     0.02   0.0067421     0.05      0.00     0.00
"TRANSFORMER.T_2054" ........   1     0.98381            0     0.00           0     0.00     19.00    13.94
   -                            2      32.661            0     0.00           0     0.00      0.00     0.00
   -                            3      32.661            0     0.00           0     0.00      0.00     0.00
"TRANSFORMER.T_2055" ........   1     0.54751            0     0.00           0     0.00      7.93     5.82
   -                            2      18.177            0     0.00           0     0.00      0.00     0.00
   -                            3      18.177            0     0.00           0     0.00      0.00     0.00
"TRANSFORMER.T_2056" ........   1     0.63504            0     0.00           0     0.00     18.40    13.49
   -                            2      21.083            0     0.00           0     0.00      0.00     0.00
   -                            3      21.083            0     0.00           0     0.00      0.00     0.00
"TRANSFORMER.T_2058" ........   1      1.3797    0.0002692     0.02  0.00073096     0.05     10.00     7.33
   -                            2      91.538     0.017861     0.02    0.048497     0.05      0.00     0.00
"TRANSFORMER.T_2059" ........   1     0.36143            0     0.00           0     0.00     10.47     7.68
   -                            2      11.999            0     0.00           0     0.00      0.00     0.00
   -                            3      11.999            0     0.00           0     0.00      0.00     0.00
"TRANSFORMER.T_2060" ........   1     0.25267            0     0.00           0     0.00      7.32     5.37
   -                            2      8.3883            0     0.00           0     0.00      0.00     0.00
   -                            3      8.3883            0     0.00           0     0.00      0.00     0.00
"TRANSFORMER.T_3002" ........   1     0.86954    0.0006042     0.07  0.00052626     0.06     42.02    30.82
   -                            2       57.69     0.040086     0.07    0.034915     0.06      0.00     0.00
"TRANSFORMER.T_3004" ........   1     0.14248   9.7717E-005     0.07  8.5069E-005     0.06      6.89     5.05
   -                            2      9.4532    0.0064832     0.07   0.0056441     0.06      0.00     0.00
"TRANSFORMER.T_3006" ........   1     0.18262    0.0001763     0.10  0.00012141     0.07      8.83     6.47
   -                            2      12.116     0.011697     0.10    0.008055     0.07      0.00     0.00
"TRANSFORMER.T_3007" ........   1     0.43196   0.00041763     0.10  0.00028773     0.07     12.53     9.19
   -                            2      28.659     0.027708     0.10     0.01909     0.07      0.00     0.00
"TRANSFORMER.T_3009" ........   1     0.54037            0     0.00           0     0.00     10.44     7.65
   -                            2      17.939            0     0.00           0     0.00      0.00     0.00
   -                            3      17.939            0     0.00           0     0.00      0.00     0.00
"TRANSFORMER.T_3010" ........   1     0.65647            0     0.00           0     0.00     12.68     9.30
   -                            2      21.794            0     0.00           0     0.00      0.00     0.00
   -                            3      21.794            0     0.00           0     0.00      0.00     0.00
"TRANSFORMER.T_3011" ........   1      0.9671            0     0.00           0     0.00     18.68    13.70
   -                            2      32.106            0     0.00           0     0.00      0.00     0.00
   -                            3      32.106            0     0.00           0     0.00      0.00     0.00
"TRANSFORMER.T_3012" ........   1      0.4947            0     0.00           0     0.00      7.17     5.26
   -                            2      16.423            0     0.00           0     0.00      0.00     0.00
   -                            3      16.423            0     0.00           0     0.00      0.00     0.00
"TRANSFORMER.T_3013" ........   1      0.3263            0     0.00           0     0.00      9.45     6.93
   -                            2      10.833            0     0.00           0     0.00      0.00     0.00
   -                            3      10.833            0     0.00           0     0.00      0.00     0.00
"TRANSFORMER.T_3014" ........   1     0.41627            0     0.00           0     0.00      8.04     5.90
   -                            2      13.819            0     0.00           0     0.00      0.00     0.00
   -                            3       13.82            0     0.00           0     0.00      0.00     0.00
"TRANSFORMER.T_3016" ........   1     0.85753            0     0.00           0     0.00     16.56    12.15
   -                            2      28.469            0     0.00           0     0.00      0.00     0.00
   -                            3      28.469            0     0.00           0     0.00      0.00     0.00
"TRANSFORMER.T_3017" ........   1      1.0912            0     0.00           0     0.00      7.90     5.80
   -                            2      36.225            0     0.00           0     0.00      0.00     0.00
   -                            3      36.226            0     0.00           0     0.00      0.00     0.00
"TRANSFORMER.T_3018" ........   1     0.70349            0     0.00           0     0.00     13.59     9.96
   -                            2      23.355            0     0.00           0     0.00      0.00     0.00
   -                            3      23.355            0     0.00           0     0.00      0.00     0.00
"TRANSFORMER.T_3019" ........   1     0.70282            0     0.00           0     0.00     13.58     9.96
   -                            2      23.333            0     0.00           0     0.00      0.00     0.00
   -                            3      23.333            0     0.00           0     0.00      0.00     0.00
"TRANSFORMER.T_3020" ........   1     0.81165            0     0.00           0     0.00      5.88     4.31
   -                            2      26.945            0     0.00           0     0.00      0.00     0.00
   -                            3      26.946            0     0.00           0     0.00      0.00     0.00
"TRANSFORMER.T_3021" ........   1      1.0513            0     0.00           0     0.00     20.31    14.89
   -                            2      34.903            0     0.00           0     0.00      0.00     0.00
   -                            3      34.903            0     0.00           0     0.00      0.00     0.00
"TRANSFORMER.T_3023" ........   1     0.54229            0     0.00           0     0.00      7.86     5.76
   -                            2      18.003            0     0.00           0     0.00      0.00     0.00
   -                            3      18.003            0     0.00           0     0.00      0.00     0.00
"TRANSFORMER.T_3024" ........   1     0.66799            0     0.00           0     0.00     12.90     9.46
   -                            2      22.176            0     0.00           0     0.00      0.00     0.00
   -                            3      22.176            0     0.00           0     0.00      0.00     0.00
"TRANSFORMER.T_3025" ........   1     0.84352            0     0.00           0     0.00     12.22     8.96
   -                            2      28.004            0     0.00           0     0.00      0.00     0.00
   -                            3      28.004            0     0.00           0     0.00      0.00     0.00
"TRANSFORMER.T_3026" ........   1      1.2994            0     0.00           0     0.00     25.10    18.41
   -                            2      43.138            0     0.00           0     0.00      0.00     0.00
   -                            3      43.139            0     0.00           0     0.00      0.00     0.00
"TRANSFORMER.T_3027" ........   1     0.89739            0     0.00           0     0.00      6.50     4.77
   -                            2      29.792            0     0.00           0     0.00      0.00     0.00
   -                            3      29.792            0     0.00           0     0.00      0.00     0.00
"TRANSFORMER.T_3028" ........   1      1.5136            0     0.00           0     0.00     10.96     8.04
   -                            2      50.248            0     0.00           0     0.00      0.00     0.00
   -                            3      50.248            0     0.00           0     0.00      0.00     0.00
"TRANSFORMER.T_3029" ........   1     0.34256            0     0.00           0     0.00      6.62     4.85
   -                            2      11.372            0     0.00           0     0.00      0.00     0.00
   -                            3      11.373            0     0.00           0     0.00      0.00     0.00
"TRANSFORMER.T_3031" ........   1     0.17962    0.0002026     0.11  0.00012988     0.07      8.68     6.37
   -                            2      11.917     0.013442     0.11   0.0086175     0.07      0.00     0.00
"TRANSFORMER.T_3032" ........   1     0.26185   0.00030596     0.12  0.00019313     0.07     12.66     9.28
   -                            2      17.372       0.0203     0.12    0.012814     0.07      0.00     0.00
"TRANSFORMER.T_3033" ........   1     0.43056   0.00053132     0.12  0.00032828     0.08     20.82    15.27
   -                            2      28.566     0.035251     0.12     0.02178     0.08      0.00     0.00
"TRANSFORMER.T_3034" ........   1     0.19891   0.00025262     0.13   0.0001538     0.08      9.62     7.05
   -                            2      13.197     0.016761     0.13    0.010204     0.08      0.00     0.00
"TRANSFORMER.T_3035" ........   1     0.47476   0.00051732     0.11  0.00033782     0.07     22.95    16.83
   -                            2      31.499     0.034322     0.11    0.022413     0.07      0.00     0.00
"TRANSFORMER.T_3036" ........   1     0.17283   0.00018406     0.11  0.00012068     0.07      8.36     6.13
   -                            2      11.467     0.012212     0.11   0.0080067     0.07      0.00     0.00
"TRANSFORMER.T_3037" ........   1     0.32442   0.00034354     0.11  0.00022595     0.07     15.68    11.50
   -                            2      21.524     0.022792     0.11    0.014991     0.07      0.00     0.00
"TRANSFORMER.T_3038" ........   1     0.26352   0.00027446     0.10  0.00018139     0.07     12.74     9.34
   -                            2      17.484     0.018209     0.10    0.012035     0.07      0.00     0.00
"TRANSFORMER.T_3039" ........   1     0.20894   0.00021429     0.10  0.00014222     0.07     10.10     7.41
   -                            2      13.862     0.014217     0.10   0.0094361     0.07      0.00     0.00
"TRANSFORMER.T_3041" ........   1     0.66868            0     0.00           0     0.00      9.69     7.10
   -                            2      22.199            0     0.00           0     0.00      0.00     0.00
   -                            3      22.199            0     0.00           0     0.00      0.00     0.00
"TRANSFORMER.T_3042" ........   1     0.96418            0     0.00           0     0.00     18.62    13.66
   -                            2       32.01            0     0.00           0     0.00      0.00     0.00
   -                            3       32.01            0     0.00           0     0.00      0.00     0.00
"TRANSFORMER.T_3043" ........   1     0.87406            0     0.00           0     0.00     16.88    12.38
   -                            2      29.018            0     0.00           0     0.00      0.00     0.00
   -                            3      29.018            0     0.00           0     0.00      0.00     0.00
"TRANSFORMER.T_3044" ........   1     0.55319            0     0.00           0     0.00     10.69     7.84
   -                            2      18.365            0     0.00           0     0.00      0.00     0.00
   -                            3      18.365            0     0.00           0     0.00      0.00     0.00
"TRANSFORMER.T_3045" ........   1     0.56469            0     0.00           0     0.00     10.91     8.00
   -                            2      18.747            0     0.00           0     0.00      0.00     0.00
   -                            3      18.747            0     0.00           0     0.00      0.00     0.00
"TRANSFORMER.T_3047" ........   1     0.44972   0.00048923     0.11  0.00032031     0.07     21.74    15.94
   -                            2      29.837     0.032459     0.11    0.021252     0.07      0.00     0.00
"TRANSFORMER.T_3048" ........   1     0.11928   0.00012895     0.11  8.433E-005     0.07      5.77     4.23
   -                            2      7.9138    0.0085555     0.11   0.0055951     0.07      0.00     0.00
"TRANSFORMER.T_3049" ........   1    0.074746   8.0726E-005     0.11  5.2763E-005     0.07      3.61     2.65
   -                            2       4.959     0.005356     0.11   0.0035008     0.07      0.00     0.00
"TRANSFORMER.T_3050" ........   1     0.11844   0.00012802     0.11  8.369E-005     0.07      5.73     4.20
   -                            2       7.858    0.0084939     0.11   0.0055526     0.07      0.00     0.00
"TRANSFORMER.T_3051" ........   1     0.10914   0.00011794     0.11  7.7096E-005     0.07      5.28     3.87
   -                            2      7.2408    0.0078253     0.11   0.0051152     0.07      0.00     0.00
"TRANSFORMER.T_3052" ........   1     0.27988   0.00030342     0.11  0.00019843     0.07     13.53     9.92
   -                            2      18.569     0.020131     0.11    0.013165     0.07      0.00     0.00
"TRANSFORMER.T_3054" ........   1      0.1106   0.00011142     0.10  7.4217E-005     0.07      5.35     3.92
   -                            2      7.3376    0.0073923     0.10   0.0049241     0.07      0.00     0.00
"TRANSFORMER.T_3056" ........   1     0.49859            0     0.00           0     0.00      9.63     7.06
   -                            2      16.552            0     0.00           0     0.00      0.00     0.00
   -                            3      16.552            0     0.00           0     0.00      0.00     0.00
"TRANSFORMER.T_3057" ........   1     0.50478            0     0.00           0     0.00      9.75     7.15
   -                            2      16.758            0     0.00           0     0.00      0.00     0.00
   -                            3      16.758            0     0.00           0     0.00      0.00     0.00
"TRANSFORMER.T_3058" ........   1     0.45154            0     0.00           0     0.00      8.72     6.40
   -                            2      14.991            0     0.00           0     0.00      0.00     0.00
   -                            3      14.991            0     0.00           0     0.00      0.00     0.00
"TRANSFORMER.T_3059" ........   1     0.59265            0     0.00           0     0.00     11.45     8.39
   -                            2      19.675            0     0.00           0     0.00      0.00     0.00
   -                            3      19.675            0     0.00           0     0.00      0.00     0.00
"TRANSFORMER.T_3060" ........   1     0.47172            0     0.00           0     0.00      9.11     6.68
   -                            2      15.661            0     0.00           0     0.00      0.00     0.00
   -                            3      15.661            0     0.00           0     0.00      0.00     0.00
"TRANSFORMER.T_3061" ........   1     0.16481            0     0.00           0     0.00      3.18     2.33
   -                            2      5.4715            0     0.00           0     0.00      0.00     0.00
   -                            3      5.4716            0     0.00           0     0.00      0.00     0.00
"TRANSFORMER.T_3062" ........   1     0.12589            0     0.00           0     0.00      2.43     1.78
   -                            2      4.1792            0     0.00           0     0.00      0.00     0.00
   -                            3      4.1793            0     0.00           0     0.00      0.00     0.00
"TRANSFORMER.T_3063" ........   1     0.85794            0     0.00           0     0.00     16.57    12.15
   -                            2      28.482            0     0.00           0     0.00      0.00     0.00
   -                            3      28.483            0     0.00           0     0.00      0.00     0.00
"TRANSFORMER.T_3064" ........   1      1.0039            0     0.00           0     0.00     19.39    14.22
   -                            2      33.327            0     0.00           0     0.00      0.00     0.00
   -                            3      33.327            0     0.00           0     0.00      0.00     0.00
"TRANSFORMER.T_3065" ........   1     0.36935            0     0.00           0     0.00      7.13     5.23
   -                            2      12.262            0     0.00           0     0.00      0.00     0.00
   -                            3      12.262            0     0.00           0     0.00      0.00     0.00
"TRANSFORMER.T_3066" ........   1     0.44683            0     0.00           0     0.00      8.63     6.33
   -                            2      14.834            0     0.00           0     0.00      0.00     0.00
   -                            3      14.834            0     0.00           0     0.00      0.00     0.00
"TRANSFORMER.T_3067" ........   1     0.80724            0     0.00           0     0.00     15.59    11.43
   -                            2      26.799            0     0.00           0     0.00      0.00     0.00
   -                            3      26.799            0     0.00           0     0.00      0.00     0.00
"TRANSFORMER.T_3070" ........   1    0.035112   4.538E-005     0.13  2.7348E-005     0.08      1.70     1.24
   -                            2      2.3295    0.0030109     0.13   0.0018146     0.08      0.00     0.00
"TRANSFORMER.T_3071" ........   1    0.093751    0.0001213     0.13  7.3117E-005     0.08      4.53     3.32
   -                            2        6.22    0.0080477     0.13   0.0048512     0.08      0.00     0.00
"TRANSFORMER.T_3072" ........   1    0.081664   0.00010564     0.13  6.369E-005     0.08      3.95     2.90
   -                            2      5.4181    0.0070089     0.13   0.0042257     0.08      0.00     0.00
"TRANSFORMER.T_3073" ........   1     0.10396   0.00013452     0.13  8.1076E-005     0.08      5.03     3.69
   -                            2       6.897    0.0089248     0.13   0.0053792     0.08      0.00     0.00
"TRANSFORMER.T_3074" ........   1     0.21721   0.00028165     0.13  0.00016981     0.08     10.50     7.70
   -                            2      14.411     0.018686     0.13    0.011267     0.08      0.00     0.00
"TRANSFORMER.T_3077" ........   1      1.8201    0.0024203     0.13   0.0014503     0.08      7.92     5.81
   -                            2      120.76      0.16058     0.13    0.096227     0.08      0.00     0.00
"TRANSFORMER.T_3078" ........   1     0.18181   0.00024115     0.13  0.00014394     0.08      8.79     6.45
   -                            2      12.062     0.015999     0.13   0.0095501     0.08      0.00     0.00
"TRANSFORMER.T_3081" ........   1    0.067098   9.7578E-005     0.15  5.5991E-005     0.08      3.24     2.38
   -                            2      4.4517     0.006474     0.15    0.003715     0.08      0.00     0.00
"TRANSFORMER.T_3083" ........   1     0.48377            0     0.00           0     0.00      9.34     6.85
   -                            2       16.06            0     0.00           0     0.00      0.00     0.00
   -                            3       16.06            0     0.00           0     0.00      0.00     0.00
"TRANSFORMER.T_3084" ........   1      0.2899            0     0.00           0     0.00      5.60     4.11
   -                            2      9.6241            0     0.00           0     0.00      0.00     0.00
   -                            3      9.6242            0     0.00           0     0.00      0.00     0.00
"TRANSFORMER.T_3085" ........   1     0.86431            0     0.00           0     0.00     16.69    12.24
   -                            2      28.694            0     0.00           0     0.00      0.00     0.00
   -                            3      28.694            0     0.00           0     0.00      0.00     0.00
"TRANSFORMER.T_3086" ........   1     0.31263            0     0.00           0     0.00      6.04     4.43
   -                            2      10.379            0     0.00           0     0.00      0.00     0.00
   -                            3      10.379            0     0.00           0     0.00      0.00     0.00
"TRANSFORMER.T_3087" ........   1     0.55202            0     0.00           0     0.00     10.66     7.82
   -                            2      18.326            0     0.00           0     0.00      0.00     0.00
   -                            3      18.326            0     0.00           0     0.00      0.00     0.00
"TRANSFORMER.T_3088" ........   1      1.0642            0     0.00           0     0.00     20.56    15.07
   -                            2      35.329            0     0.00           0     0.00      0.00     0.00
   -                            3      35.329            0     0.00           0     0.00      0.00     0.00
"TRANSFORMER.T_3089" ........   1     0.10996            0     0.00           0     0.00      2.12     1.56
   -                            2      3.6505            0     0.00           0     0.00      0.00     0.00
   -                            3      3.6506            0     0.00           0     0.00      0.00     0.00
"TRANSFORMER.T_3090" ........   1     0.40447            0     0.00           0     0.00      7.81     5.73
   -                            2      13.428            0     0.00           0     0.00      0.00     0.00
   -                            3      13.428            0     0.00           0     0.00      0.00     0.00
"TRANSFORMER.T_3091" ........   1     0.32709            0     0.00           0     0.00      9.48     6.95
   -                            2      10.859            0     0.00           0     0.00      0.00     0.00
   -                            3      10.859            0     0.00           0     0.00      0.00     0.00
"TRANSFORMER.T_3093" ........   1     0.58027            0     0.00           0     0.00     11.21     8.22
   -                            2      19.264            0     0.00           0     0.00      0.00     0.00
   -                            3      19.264            0     0.00           0     0.00      0.00     0.00
"TRANSFORMER.T_3094" ........   1     0.38988            0     0.00           0     0.00      7.53     5.52
   -                            2      12.943            0     0.00           0     0.00      0.00     0.00
   -                            3      12.944            0     0.00           0     0.00      0.00     0.00
"TRANSFORMER.T_3095" ........   1     0.77789            0     0.00           0     0.00     15.03    11.02
   -                            2      25.825            0     0.00           0     0.00      0.00     0.00
   -                            3      25.825            0     0.00           0     0.00      0.00     0.00
"TRANSFORMER.T_3096" ........   1     0.37016            0     0.00           0     0.00      7.15     5.24
   -                            2      12.289            0     0.00           0     0.00      0.00     0.00
   -                            3      12.289            0     0.00           0     0.00      0.00     0.00
"TRANSFORMER.T_3097" ........   1      1.4669            0     0.00           0     0.00     28.33    20.78
   -                            2        48.7            0     0.00           0     0.00      0.00     0.00
   -                            3        48.7            0     0.00           0     0.00      0.00     0.00
"TRANSFORMER.T_3098" ........   1     0.86719            0     0.00           0     0.00     12.56     9.21
   -                            2      28.789            0     0.00           0     0.00      0.00     0.00
   -                            3       28.79            0     0.00           0     0.00      0.00     0.00
"TRANSFORMER.T_3099" ........   1     0.55142            0     0.00           0     0.00     10.65     7.81
   -                            2      18.306            0     0.00           0     0.00      0.00     0.00
   -                            3      18.306            0     0.00           0     0.00      0.00     0.00
"TRANSFORMER.T_3101" ........   1     0.32779            0     0.00           0     0.00      6.33     4.64
   -                            2      10.882            0     0.00           0     0.00      0.00     0.00
   -                            3      10.882            0     0.00           0     0.00      0.00     0.00
"TRANSFORMER.T_3102" ........   1      1.0582            0     0.00           0     0.00     20.44    14.99
   -                            2       35.13            0     0.00           0     0.00      0.00     0.00
   -                            3       35.13            0     0.00           0     0.00      0.00     0.00
"TRANSFORMER.T_3103" ........   1     0.89378            0     0.00           0     0.00     12.95     9.50
   -                            2      29.672            0     0.00           0     0.00      0.00     0.00
   -                            3      29.672            0     0.00           0     0.00      0.00     0.00
"TRANSFORMER.T_3104" ........   1      1.1361            0     0.00           0     0.00      8.23     6.03
   -                            2      37.717            0     0.00           0     0.00      0.00     0.00
   -                            3      37.717            0     0.00           0     0.00      0.00     0.00
"TRANSFORMER.T_3105" ........   1     0.38489            0     0.00           0     0.00      7.43     5.45
   -                            2      12.778            0     0.00           0     0.00      0.00     0.00
   -                            3      12.778            0     0.00           0     0.00      0.00     0.00
"TRANSFORMER.T_3106" ........   1      1.3052            0     0.00           0     0.00      9.45     6.93
   -                            2      43.332            0     0.00           0     0.00      0.00     0.00
   -                            3      43.332            0     0.00           0     0.00      0.00     0.00
"TRANSFORMER.T_3108" ........   1     0.28034            0     0.00           0     0.00      5.41     3.97
   -                            2      9.3067            0     0.00           0     0.00      0.00     0.00
   -                            3      9.3068            0     0.00           0     0.00      0.00     0.00
"TRANSFORMER.T_3109" ........   1      1.9104            0     0.00           0     0.00     36.90    27.06
   -                            2      63.424            0     0.00           0     0.00      0.00     0.00
   -                            3      63.424            0     0.00           0     0.00      0.00     0.00
"TRANSFORMER.T_3110" ........   1      1.1989            0     0.00           0     0.00     17.37    12.74
   -                            2      39.803            0     0.00           0     0.00      0.00     0.00
   -                            3      39.803            0     0.00           0     0.00      0.00     0.00
"TRANSFORMER.T_3111" ........   1      1.2568            0     0.00           0     0.00     18.21    13.35
   -                            2      41.723            0     0.00           0     0.00      0.00     0.00
   -                            3      41.723            0     0.00           0     0.00      0.00     0.00
"TRANSFORMER.T_3112" ........   1      1.1691            0     0.00           0     0.00     16.94    12.42
   -                            2      38.813            0     0.00           0     0.00      0.00     0.00
   -                            3      38.813            0     0.00           0     0.00      0.00     0.00
"TRANSFORMER.T_3114" ........   1     0.70078            0     0.00           0     0.00     13.54     9.93
   -                            2      23.265            0     0.00           0     0.00      0.00     0.00
   -                            3      23.265            0     0.00           0     0.00      0.00     0.00
"TRANSFORMER.T_3115" ........   1     0.97203            0     0.00           0     0.00     14.08    10.33
   -                            2       32.27            0     0.00           0     0.00      0.00     0.00
   -                            3       32.27            0     0.00           0     0.00      0.00     0.00
"TRANSFORMER.T_3116" ........   1     0.94474            0     0.00           0     0.00     18.25    13.38
   -                            2      31.364            0     0.00           0     0.00      0.00     0.00
   -                            3      31.364            0     0.00           0     0.00      0.00     0.00
"TRANSFORMER.T_3117" ........   1     0.50589            0     0.00           0     0.00      9.77     7.17
   -                            2      16.795            0     0.00           0     0.00      0.00     0.00
   -                            3      16.795            0     0.00           0     0.00      0.00     0.00
"TRANSFORMER.T_3120" ........   1         0.4            0     0.00           0     0.00      7.73     5.67
   -                            2       13.28            0     0.00           0     0.00      0.00     0.00
   -                            3       13.28            0     0.00           0     0.00      0.00     0.00
"TRANSFORMER.T_3121" ........   1     0.36195            0     0.00           0     0.00      6.99     5.13
   -                            2      12.016            0     0.00           0     0.00      0.00     0.00
   -                            3      12.016            0     0.00           0     0.00      0.00     0.00
"TRANSFORMER.T_3122" ........   1     0.57134            0     0.00           0     0.00     11.04     8.09
   -                            2      18.968            0     0.00           0     0.00      0.00     0.00
   -                            3      18.968            0     0.00           0     0.00      0.00     0.00
"TRANSFORMER.T_3123" ........   1     0.69716            0     0.00           0     0.00     13.47     9.88
   -                            2      23.145            0     0.00           0     0.00      0.00     0.00
   -                            3      23.145            0     0.00           0     0.00      0.00     0.00
"TRANSFORMER.T_3124" ........   1     0.44737            0     0.00           0     0.00      8.64     6.34
   -                            2      14.852            0     0.00           0     0.00      0.00     0.00
   -                            3      14.852            0     0.00           0     0.00      0.00     0.00
"TRANSFORMER.T_3125" ........   1     0.10421            0     0.00           0     0.00      5.03     3.69
   -                            2      3.4594            0     0.00           0     0.00      0.00     0.00
   -                            3      3.4595            0     0.00           0     0.00      0.00     0.00
"TRANSFORMER.T_3126" ........   1      0.8399            0     0.00           0     0.00     16.22    11.90
   -                            2      27.883            0     0.00           0     0.00      0.00     0.00
   -                            3      27.883            0     0.00           0     0.00      0.00     0.00
"TRANSFORMER.T_3127" ........   1     0.77574            0     0.00           0     0.00     14.98    10.99
   -                            2      25.753            0     0.00           0     0.00      0.00     0.00
   -                            3      25.754            0     0.00           0     0.00      0.00     0.00
"TRANSFORMER.T_3128" ........   1     0.47936            0     0.00           0     0.00      9.26     6.79
   -                            2      15.914            0     0.00           0     0.00      0.00     0.00
   -                            3      15.914            0     0.00           0     0.00      0.00     0.00
"TRANSFORMER.T_3129" ........   1     0.25547            0     0.00           0     0.00      4.93     3.62
   -                            2      8.4813            0     0.00           0     0.00      0.00     0.00
   -                            3      8.4814            0     0.00           0     0.00      0.00     0.00
"TRANSFORMER.T_3130" ........   1     0.46069            0     0.00           0     0.00      8.90     6.53
   -                            2      15.294            0     0.00           0     0.00      0.00     0.00
   -                            3      15.294            0     0.00           0     0.00      0.00     0.00
"TRANSFORMER.T_3131" ........   1      0.4826            0     0.00           0     0.00      9.32     6.84
   -                            2      16.022            0     0.00           0     0.00      0.00     0.00
   -                            3      16.022            0     0.00           0     0.00      0.00     0.00
"TRANSFORMER.T_3132" ........   1      1.5605            0     0.00           0     0.00     22.61    16.58
   -                            2      51.805            0     0.00           0     0.00      0.00     0.00
   -                            3      51.806            0     0.00           0     0.00      0.00     0.00
"TRANSFORMER.T_3134" ........   1     0.74485            0     0.00           0     0.00     10.79     7.91
   -                            2      24.728            0     0.00           0     0.00      0.00     0.00
   -                            3      24.728            0     0.00           0     0.00      0.00     0.00
"TRANSFORMER.T_3135" ........   1      0.9149            0     0.00           0     0.00     17.67    12.96
   -                            2      30.373            0     0.00           0     0.00      0.00     0.00
   -                            3      30.373            0     0.00           0     0.00      0.00     0.00
"TRANSFORMER.T_3136" ........   1      1.3024            0     0.00           0     0.00     18.87    13.84
   -                            2      43.239            0     0.00           0     0.00      0.00     0.00
   -                            3      43.239            0     0.00           0     0.00      0.00     0.00
"TRANSFORMER.T_3137" ........   1      1.7432            0     0.00           0     0.00     25.25    18.52
   -                            2      57.873            0     0.00           0     0.00      0.00     0.00
   -                            3      57.873            0     0.00           0     0.00      0.00     0.00
"TRANSFORMER.T_3138" ........   1      1.1492            0     0.00           0     0.00     16.65    12.21
   -                            2      38.152            0     0.00           0     0.00      0.00     0.00
   -                            3      38.152            0     0.00           0     0.00      0.00     0.00
"TRANSFORMER.T_3139" ........   1  9.5524E-006            0     0.00           0     0.00      0.00     0.00
   -                            2  4.1059E-008            0     0.00           0     0.00      0.00     0.00
   -                            3  0.00031713            0     0.00           0     0.00      0.00     0.00
"TRANSFORMER.T_3141" ........   1     0.62052            0     0.00           0     0.00     11.99     8.79
   -                            2        20.6            0     0.00           0     0.00      0.00     0.00
   -                            3      20.601            0     0.00           0     0.00      0.00     0.00
"TRANSFORMER.T_3142" ........   1     0.51224            0     0.00           0     0.00      9.89     7.26
   -                            2      17.006            0     0.00           0     0.00      0.00     0.00
   -                            3      17.006            0     0.00           0     0.00      0.00     0.00
"TRANSFORMER.T_3143" ........   1      1.0065            0     0.00           0     0.00     19.44    14.26
   -                            2      33.415            0     0.00           0     0.00      0.00     0.00
   -                            3      33.415            0     0.00           0     0.00      0.00     0.00
"TRANSFORMER.T_3144" ........   1    0.065458            0     0.00           0     0.00      3.16     2.32
   -                            2      2.1731            0     0.00           0     0.00      0.00     0.00
   -                            3      2.1731            0     0.00           0     0.00      0.00     0.00
"TRANSFORMER.T_3145" ........   1     0.24475            0     0.00           0     0.00      4.73     3.47
   -                            2      8.1254            0     0.00           0     0.00      0.00     0.00
   -                            3      8.1255            0     0.00           0     0.00      0.00     0.00
"TRANSFORMER.T_3146" ........   1     0.21949            0     0.00           0     0.00      4.24     3.11
   -                            2      7.2868            0     0.00           0     0.00      0.00     0.00
   -                            3      7.2869            0     0.00           0     0.00      0.00     0.00
"TRANSFORMER.T_3147" ........   1      1.1473            0     0.00           0     0.00     22.16    16.25
   -                            2      38.087            0     0.00           0     0.00      0.00     0.00
   -                            3      38.087            0     0.00           0     0.00      0.00     0.00
"TRANSFORMER.T_3148" ........   1      1.3603            0     0.00           0     0.00     19.71    14.45
   -                            2       45.16            0     0.00           0     0.00      0.00     0.00
   -                            3       45.16            0     0.00           0     0.00      0.00     0.00
"TRANSFORMER.T_3149" ........   1     0.27262            0     0.00           0     0.00      5.27     3.86
   -                            2      9.0506            0     0.00           0     0.00      0.00     0.00
   -                            3      9.0508            0     0.00           0     0.00      0.00     0.00
"TRANSFORMER.T_3150" ........   1     0.33186            0     0.00           0     0.00      9.62     7.05
   -                            2      11.017            0     0.00           0     0.00      0.00     0.00
   -                            3      11.017            0     0.00           0     0.00      0.00     0.00
"TRANSFORMER.T_3151" ........   1     0.21945            0     0.00           0     0.00      6.36     4.66
   -                            2      7.2853            0     0.00           0     0.00      0.00     0.00
   -                            3      7.2854            0     0.00           0     0.00      0.00     0.00
"TRANSFORMER.T_3152" ........   1     0.26583            0     0.00           0     0.00      7.70     5.65
   -                            2       8.825            0     0.00           0     0.00      0.00     0.00
   -                            3      8.8251            0     0.00           0     0.00      0.00     0.00
"TRANSFORMER.T_3153" ........   1      0.8226            0     0.00           0     0.00     15.89    11.65
   -                            2      27.309            0     0.00           0     0.00      0.00     0.00
   -                            3      27.309            0     0.00           0     0.00      0.00     0.00
"TRANSFORMER.T_3154" ........   1     0.60508            0     0.00           0     0.00     17.53    12.86
   -                            2      20.088            0     0.00           0     0.00      0.00     0.00
   -                            3      20.088            0     0.00           0     0.00      0.00     0.00
"TRANSFORMER.T_3155" ........   1     0.19222            0     0.00           0     0.00      5.57     4.08
   -                            2      6.3814            0     0.00           0     0.00      0.00     0.00
   -                            3      6.3815            0     0.00           0     0.00      0.00     0.00
"TRANSFORMER.T_3157" ........   1      1.3121            0     0.00           0     0.00     19.01    13.94
   -                            2       43.56            0     0.00           0     0.00      0.00     0.00
   -                            3       43.56            0     0.00           0     0.00      0.00     0.00
"TRANSFORMER.T_3158" ........   1     0.83139            0     0.00           0     0.00     12.04     8.83
   -                            2      27.601            0     0.00           0     0.00      0.00     0.00
   -                            3      27.601            0     0.00           0     0.00      0.00     0.00
"TRANSFORMER.T_3159" ........   1      1.3317            0     0.00           0     0.00     19.29    14.15
   -                            2       44.21            0     0.00           0     0.00      0.00     0.00
   -                            3       44.21            0     0.00           0     0.00      0.00     0.00
"TRANSFORMER.T_3160" ........   1     0.55459            0     0.00           0     0.00     16.07    11.78
   -                            2      18.411            0     0.00           0     0.00      0.00     0.00
   -                            3      18.412            0     0.00           0     0.00      0.00     0.00
"TRANSFORMER.T_3161" ........   1     0.34292            0     0.00           0     0.00      9.94     7.29
   -                            2      11.384            0     0.00           0     0.00      0.00     0.00
   -                            3      11.384            0     0.00           0     0.00      0.00     0.00
"TRANSFORMER.T_3162" ........   1      0.4738            0     0.00           0     0.00     13.73    10.07
   -                            2      15.729            0     0.00           0     0.00      0.00     0.00
   -                            3      15.729            0     0.00           0     0.00      0.00     0.00
"LINE.L_1001_1002" ..........   1      3.7444       0.3407     9.10    0.066641     1.78      0.98     0.65
   -                            2      3.8791      0.34068     8.78    0.066804     1.72      0.00     0.00
"LINE.L_1002_1003" ..........   1     0.63971   0.00027972     0.04  0.00036661     0.06      0.16     0.11
   -                            2     0.64933   0.00026493     0.04   0.0003559     0.05      0.00     0.00
"LINE.L_1002_1004" ..........   1      3.2488      0.34088    10.49    0.067155     2.07      0.86     0.58
   -                            2      3.2492      0.34088    10.49    0.067155     2.07      0.00     0.00
"LINE.L_1004_1005" ..........   1      2.9355      0.34099    11.62    0.067303     2.29      0.79     0.52
   -                            2      2.9358      0.34099    11.61    0.067303     2.29      0.00     0.00
"LINE.L_1005_1006" ..........   1      2.7186      0.34106    12.55    0.067409     2.48      0.73     0.49
   -                            2      2.7193      0.34106    12.54     0.06741     2.48      0.00     0.00
"LINE.L_1006_1007" ..........   1     0.33083            0     0.00           0     0.00      0.08     0.06
   -                            2     0.33116            0     0.00           0     0.00      0.00     0.00
"LINE.L_1006_1008" ..........   1      2.3027     0.085409     3.71    0.067689     2.94      0.61     0.41
   -                            2       2.303     0.085409     3.71    0.067689     2.94      0.00     0.00
"LINE.L_1008_1009" ..........   1      1.6642     0.085272     5.12    0.067995     4.09      0.45     0.30
   -                            2      1.6649     0.085272     5.12    0.067995     4.08      0.00     0.00
...